[General]
network = PolicyB
sim-time-limit = 57600s
cpu-time-limit = 600s
simtime-resolution = ms
#debug-on-errors = true
