[General]
network = PolicyA
seed-set = ${456}
sim-time-limit = 43200s
cpu-time-limit = 600s
simtime-resolution = ms
#debug-on-errors = true
