[General]
network = PolicyA
seed-set = ${123}
sim-time-limit = 432000s
cpu-time-limit = 600s
simtime-resolution = ms
#debug-on-errors = true
