[General]
network = PolicyB
sim-time-limit = 576000s
cpu-time-limit = 600s
simtime-resolution = ms
#debug-on-errors = true
